Circuit: * C:\Users\KAUSHIK\Documents\LTspiceXVII\EE2019_Lab\Exp_1\Exp_1_Simulation.asc

Per .tran options, skipping operating point for transient analysis.

Date: Fri Jul 01 10:14:33 2022
Total elapsed time: 0.311 seconds.

tnom = 27
temp = 27
method = modified trap
totiter = 16544
traniter = 16544
tranpoints = 5014
accept = 3892
rejected = 1122
matrix size = 26
fillins = 20
solver = Normal
Thread vector: 9.4/5.6[2] 1.9/1.3[2] 1.5/0.9[2] 0.1/0.6[1]  2592/500
Matrix Compiler1: 2.42 KB object code size  0.8/0.3/[0.2]
Matrix Compiler2: 2.84 KB object code size  0.4/0.3/[0.2]

