Circuit: * C:\Users\KAUSHIK\Documents\LTspiceXVII\EE2019_Lab\Exp_6\Exp_6_Simulation.asc

Per .tran options, skipping operating point for transient analysis.
Changing Tseed to 1e-008
Changing Tseed to 1e-010

Date: Mon Jul 18 01:02:02 2022
Total elapsed time: 1.293 seconds.

tnom = 27
temp = 27
method = modified trap
totiter = 401115
traniter = 401115
tranpoints = 200194
accept = 120161
rejected = 80031
matrix size = 15
fillins = 5
solver = Normal
Matrix Compiler1: 940 bytes object code size  0.2/0.1/[0.1]
Matrix Compiler2: 1.36 KB object code size  0.1/0.2/[0.1]

