Circuit: * C:\Users\KAUSHIK\Documents\LTspiceXVII\EE2019_Lab\Exp_6\Exp_6_Bode_Analysis.asc

Direct Newton iteration for .op point succeeded.

Date: Wed Jul 20 13:39:37 2022
Total elapsed time: 0.053 seconds.

tnom = 27
temp = 27
method = trap
totiter = 3
traniter = 0
tranpoints = 0
accept = 0
rejected = 0
matrix size = 12
fillins = 0
solver = Normal
Matrix Compiler1:      37 opcodes
Matrix Compiler2: 900 bytes object code size
