Circuit: * C:\Users\KAUSHIK\Documents\LTspiceXVII\EE2019_Lab\Exp_6\Exp_6_Simulation.asc

Per .tran options, skipping operating point for transient analysis.
Changing Tseed to 1e-008
Changing Tseed to 1e-010

Date: Wed Jul 20 13:39:14 2022
Total elapsed time: 0.465 seconds.

tnom = 27
temp = 27
method = modified trap
totiter = 81372
traniter = 81372
tranpoints = 40265
accept = 24228
rejected = 16035
matrix size = 15
fillins = 6
solver = Normal
Matrix Compiler1: 980 bytes object code size  0.3/0.2/[0.1]
Matrix Compiler2: 1.38 KB object code size  0.2/0.3/[0.1]

