Circuit: * C:\Users\KAUSHIK\Documents\LTspiceXVII\EE2019_Lab\Exp_3\Exp_3_Stability.asc

Direct Newton iteration for .op point succeeded.

Date: Mon Jul 11 09:27:16 2022
Total elapsed time: 0.119 seconds.

tnom = 27
temp = 27
method = trap
totiter = 3
traniter = 0
tranpoints = 0
accept = 0
rejected = 0
matrix size = 15
fillins = 7
solver = Normal
Matrix Compiler1:      58 opcodes
Matrix Compiler2: 1.13 KB object code size
