Circuit: * C:\Users\KAUSHIK\Documents\LTspiceXVII\EE2019_Lab\Exp_2\Exp_2_Simulation.asc

WARNING: Less than two connections to node U1:U1:UA:TEST.  This node is used by E:U1:U1:UA:TEST.
WARNING: Less than two connections to node U1:U1:UA:VTH_DIFF.  This node is used by E:U1:U1:UA:VTHDIFF.
WARNING: Less than two connections to node U1:U1:UB:TEST.  This node is used by E:U1:U1:UB:TEST.
WARNING: Less than two connections to node U1:U1:UB:VTH_DIFF.  This node is used by E:U1:U1:UB:VTHDIFF.
WARNING: Less than two connections to node U2:U1:UA:TEST.  This node is used by E:U2:U1:UA:TEST.
WARNING: Less than two connections to node U2:U1:UA:VTH_DIFF.  This node is used by E:U2:U1:UA:VTHDIFF.
WARNING: Less than two connections to node U2:U1:UB:TEST.  This node is used by E:U2:U1:UB:TEST.
WARNING: Less than two connections to node U2:U1:UB:VTH_DIFF.  This node is used by E:U2:U1:UB:VTHDIFF.
WARNING: Less than two connections to node U3:U1:UA:TEST.  This node is used by E:U3:U1:UA:TEST.
WARNING: Less than two connections to node U3:U1:UA:VTH_DIFF.  This node is used by E:U3:U1:UA:VTHDIFF.
WARNING: Less than two connections to node U3:U1:UB:TEST.  This node is used by E:U3:U1:UB:TEST.
WARNING: Less than two connections to node U3:U1:UB:VTH_DIFF.  This node is used by E:U3:U1:UB:VTHDIFF.
WARNING: Less than two connections to node U3:U1:NA1.  This node is used by R:U3:U1:DA1.
WARNING: Less than two connections to node U3:U1:NB1.  This node is used by R:U3:U1:DB1.
WARNING: Less than two connections to node U3:U1:NO1.  This node is used by R:U3:U1:DO1.
WARNING: Less than two connections to node U4:U1:UA:TEST.  This node is used by E:U4:U1:UA:TEST.
WARNING: Less than two connections to node U4:U1:UA:VTH_DIFF.  This node is used by E:U4:U1:UA:VTHDIFF.
WARNING: Less than two connections to node U4:U1:UB:TEST.  This node is used by E:U4:U1:UB:TEST.
WARNING: Less than two connections to node U4:U1:UB:VTH_DIFF.  This node is used by E:U4:U1:UB:VTHDIFF.
WARNING: Less than two connections to node U4:U1:NA1.  This node is used by R:U4:U1:DA1.
WARNING: Less than two connections to node U4:U1:NB1.  This node is used by R:U4:U1:DB1.
WARNING: Less than two connections to node U4:U1:NO1.  This node is used by R:U4:U1:DO1.
WARNING: Less than two connections to node U5:U1:UA:TEST.  This node is used by E:U5:U1:UA:TEST.
WARNING: Less than two connections to node U5:U1:UA:VTH_DIFF.  This node is used by E:U5:U1:UA:VTHDIFF.
WARNING: Less than two connections to node U5:U1:UB:TEST.  This node is used by E:U5:U1:UB:TEST.
WARNING: Less than two connections to node U5:U1:UB:VTH_DIFF.  This node is used by E:U5:U1:UB:VTHDIFF.
WARNING: Less than two connections to node U5:U1:NA1.  This node is used by R:U5:U1:DA1.
WARNING: Less than two connections to node U5:U1:NB1.  This node is used by R:U5:U1:DB1.
WARNING: Less than two connections to node U5:U1:NO1.  This node is used by R:U5:U1:DO1.
WARNING: Less than two connections to node U6:U1:UA:TEST.  This node is used by E:U6:U1:UA:TEST.
WARNING: Less than two connections to node U6:U1:UA:VTH_DIFF.  This node is used by E:U6:U1:UA:VTHDIFF.
WARNING: Less than two connections to node U6:U1:UB:TEST.  This node is used by E:U6:U1:UB:TEST.
WARNING: Less than two connections to node U6:U1:UB:VTH_DIFF.  This node is used by E:U6:U1:UB:VTHDIFF.
WARNING: Less than two connections to node U6:U1:NA1.  This node is used by R:U6:U1:DA1.
WARNING: Less than two connections to node U6:U1:NB1.  This node is used by R:U6:U1:DB1.
WARNING: Less than two connections to node U6:U1:NO1.  This node is used by R:U6:U1:DO1.
WARNING: Less than two connections to node U7:U1:UA:TEST.  This node is used by E:U7:U1:UA:TEST.
WARNING: Less than two connections to node U7:U1:UA:VTH_DIFF.  This node is used by E:U7:U1:UA:VTHDIFF.
WARNING: Less than two connections to node U7:U1:UB:TEST.  This node is used by E:U7:U1:UB:TEST.
WARNING: Less than two connections to node U7:U1:UB:VTH_DIFF.  This node is used by E:U7:U1:UB:VTHDIFF.
WARNING: Less than two connections to node U7:U1:NA1.  This node is used by R:U7:U1:DA1.
WARNING: Less than two connections to node U7:U1:NB1.  This node is used by R:U7:U1:DB1.
WARNING: Less than two connections to node U7:U1:NO1.  This node is used by R:U7:U1:DO1.
Direct Newton iteration failed to find .op point.  (Use ".option noopiter" to skip.)
Starting Gmin stepping
Gmin = 10
Gmin = 1.07374
Gmin = 0.115292
Gmin = 0.0123794
Gmin = 0.00132923
Gmin = 0.000142725
Gmin = 1.5325e-005
Gmin = 1.6455e-006
Gmin = 1.76685e-007
Gmin = 1.89714e-008
Gmin = 2.03704e-009
Gmin = 2.18725e-010
Gmin = 2.34854e-011
Gmin = 2.52173e-012
Gmin = 2.70769e-013
Gmin = 0
Gmin stepping succeeded in finding the operating point.

Heightened Def Con from 0.000293051 to 0.000293053
Heightened Def Con from 0.000680972 to 0.000680973

Date: Fri Jul 08 10:08:43 2022
Total elapsed time: 84.076 seconds.

tnom = 27
temp = 27
method = modified trap
totiter = 492184
traniter = 491776
tranpoints = 140479
accept = 105277
rejected = 35204
matrix size = 892
fillins = 139
solver = Normal
Thread vector: 574.5/291.1[4] 9.0/5.3[4] 120.6/46.8[4] 3.2/5.3[1]  2592/500
Matrix Compiler1: 27.16 KB object code size  12.9/9.4/[2.2]
Matrix Compiler2: off  [11.4]/14.2/12.3

