Circuit: * C:\Users\KAUSHIK\Documents\LTspiceXVII\EE2019_Lab\Exp_4\Exp_4_Simulation.asc

Per .tran options, skipping operating point for transient analysis.
Changing Tseed to 1e-008
Changing Tseed to 1e-010
Heightened Def Con from 0.000342284 to 0.000342285
Heightened Def Con from 0.000532869 to 0.00053287
Heightened Def Con from 0.00104361 to 0.00104361
Heightened Def Con from 0.0014165 to 0.0014165
Heightened Def Con from 0.0015901 to 0.0015901
Heightened Def Con from 0.00185562 to 0.00185562
Heightened Def Con from 0.00223837 to 0.00223837

Date: Thu Jul 14 13:10:29 2022
Total elapsed time: 17.942 seconds.

tnom = 27
temp = 27
method = modified trap
totiter = 527952
traniter = 527952
tranpoints = 144547
accept = 104456
rejected = 40096
matrix size = 51
fillins = 25
solver = Normal
Thread vector: 31.8/18.5[4] 4.6/3.6[4] 3.7/2.4[2] 0.3/0.7[1]  2592/500
Matrix Compiler1: 4.27 KB object code size  1.3/0.9/[0.3]
Matrix Compiler2: 5.22 KB object code size  0.6/1.0/[0.3]

