Circuit: * C:\Users\KAUSHIK\Documents\LTspiceXVII\EE2019_Lab\Exp_7\Exp_7_Simulation.asc

Per .tran options, skipping operating point for transient analysis.
Changing Tseed to 1e-008
Changing Tseed to 1e-010
Changing Tseed to 1e-007
Changing Tseed to 1e-011
Heightened Def Con from 0.164711 to 0.164711
Heightened Def Con from 0.471712 to 0.471712

Date: Wed Jul 20 13:40:11 2022
Total elapsed time: 1.683 seconds.

tnom = 27
temp = 27
method = modified trap
totiter = 523168
traniter = 523168
tranpoints = 130368
accept = 93341
rejected = 37025
matrix size = 15
fillins = 5
solver = Normal
Matrix Compiler1: 798 bytes object code size  0.5/0.2/[0.1]
Matrix Compiler2: 1.29 KB object code size  0.2/0.4/[0.2]

