Circuit: * C:\Users\KAUSHIK\Documents\LTspiceXVII\EE2019_Lab\Exp_7\Exp_7_Simulation_with_BPFs.asc

Per .tran options, skipping operating point for transient analysis.
Changing Tseed to 1e-008
Changing Tseed to 1e-010
Changing Tseed to 1e-007
Changing Tseed to 1e-011
Heightened Def Con from 0.973904 to 0.973904

Date: Tue Jul 19 16:05:28 2022
Total elapsed time: 7.323 seconds.

tnom = 27
temp = 27
method = modified trap
totiter = 1362744
traniter = 1362744
tranpoints = 406057
accept = 274171
rejected = 131883
matrix size = 25
fillins = 18
solver = Normal
Matrix Compiler1: 1.93 KB object code size  0.3/0.2/[0.1]
Matrix Compiler2: 2.55 KB object code size  0.2/0.3/[0.2]

